Version 4
SHEET 1 2240 1136
WIRE -400 -512 -400 -560
WIRE -864 -496 -864 -560
WIRE -864 -496 -960 -496
WIRE -768 -496 -864 -496
WIRE -960 -448 -960 -496
WIRE -768 -448 -768 -496
WIRE -400 -416 -400 -432
WIRE -176 -416 -400 -416
WIRE -400 -368 -400 -416
WIRE -768 -320 -768 -368
WIRE -688 -320 -768 -320
WIRE -544 -320 -608 -320
WIRE -448 -320 -544 -320
WIRE -176 -288 -176 -416
WIRE -960 -272 -960 -368
WIRE -768 -272 -768 -320
WIRE -1008 -224 -1120 -224
WIRE -672 -224 -816 -224
WIRE -544 -192 -544 -320
WIRE -512 -192 -544 -192
WIRE -432 -192 -432 -272
WIRE -432 -192 -448 -192
WIRE -400 -192 -432 -192
WIRE -368 -192 -400 -192
WIRE -272 -192 -304 -192
WIRE -400 -128 -400 -192
WIRE -1120 -96 -1120 -224
WIRE -1088 -96 -1120 -96
WIRE -992 -96 -992 -176
WIRE -992 -96 -1024 -96
WIRE -800 -96 -800 -176
WIRE -768 -96 -800 -96
WIRE -672 -96 -672 -224
WIRE -672 -96 -704 -96
WIRE -320 -80 -448 -80
WIRE -288 -80 -320 -80
WIRE -176 -80 -176 -224
WIRE -176 -80 -208 -80
WIRE -1120 -48 -1120 -96
WIRE -672 -48 -672 -96
WIRE -992 -16 -992 -96
WIRE -864 -16 -992 -16
WIRE -800 -16 -800 -96
WIRE -800 -16 -864 -16
WIRE -864 16 -864 -16
WIRE -432 48 -432 -32
WIRE -416 48 -432 48
WIRE -320 48 -320 -80
WIRE -320 48 -352 48
WIRE -176 48 -176 -80
WIRE -1888 144 -1888 112
WIRE -1824 144 -1888 144
WIRE -1760 144 -1760 112
WIRE -1760 144 -1824 144
WIRE -864 144 -864 96
WIRE -672 144 -672 32
WIRE -672 144 -864 144
WIRE -432 144 -432 48
WIRE -1824 160 -1824 144
WIRE -864 176 -864 144
WIRE -432 288 -432 224
WIRE -176 288 -176 128
WIRE -176 288 -432 288
WIRE -432 336 -432 288
WIRE -1824 400 -1824 368
WIRE -1824 512 -1824 480
WIRE -1792 512 -1824 512
WIRE -1120 784 -1120 32
WIRE -816 784 -1120 784
WIRE -704 784 -736 784
WIRE 256 784 160 784
WIRE 256 880 160 880
FLAG -272 -192 out_e
IOPIN -272 -192 Out
FLAG 256 784 out_e
IOPIN 256 784 In
FLAG 256 880 Notch
IOPIN 256 880 Out
FLAG -1200 48 +
FLAG -624 176 -
FLAG -1824 368 +240VDC
IOPIN -1824 368 Out
FLAG -1824 160 0
FLAG -1888 32 +
FLAG -1760 32 -
FLAG -1792 512 0
FLAG -864 -560 +240VDC
IOPIN -864 -560 Out
FLAG -400 -560 +240VDC
IOPIN -400 -560 Out
FLAG -864 176 0
FLAG -432 336 0
SYMBOL res -832 800 R270
WINDOW 0 32 56 VTop 2
WINDOW 3 0 56 VBottom 2
SYMATTR InstName RG
SYMATTR Value 1
SYMBOL THD_Analyzer -288 752 R0
SYMATTR InstName U3
SYMBOL ValVol/Tubes/6H30 -400 -320 R0
SYMATTR InstName U5
SYMBOL voltage -1824 384 R0
WINDOW 39 45 93 Left 2
WINDOW 3 46 72 Left 2
SYMATTR SpiceLine Rser=0
SYMATTR Value 240
SYMATTR InstName V4
SYMBOL voltage -1888 16 R0
WINDOW 3 -301 56 Left 2
SYMATTR Value SINE(0 2.5 1000 0 0 0)
SYMATTR InstName V2
SYMATTR Value2 AC 2.5 0
SYMBOL voltage -1760 16 R0
WINDOW 3 45 57 Left 2
SYMATTR Value SINE(0 2.5 1000 0 0 180)
SYMATTR InstName V3
SYMATTR Value2 AC 2.5 180
SYMBOL diode -512 -176 R270
WINDOW 0 32 32 VTop 2
WINDOW 3 0 32 VBottom 2
SYMATTR InstName D1
SYMATTR Value 1N4148
SYMBOL ValVol/Tubes/6H30 -400 -80 R0
SYMATTR InstName U4
SYMBOL res -304 -64 R270
WINDOW 0 32 56 VTop 2
WINDOW 3 0 56 VBottom 2
SYMATTR InstName R2
SYMATTR Value 1k
SYMBOL zener -352 32 R90
WINDOW 0 0 32 VBottom 2
WINDOW 3 32 32 VTop 2
SYMATTR InstName D2
SYMATTR Value 1N750
SYMATTR Description Diode
SYMATTR Type diode
SYMBOL cap -192 -288 R0
SYMATTR InstName C2
SYMATTR Value 100n
SYMATTR SpiceLine Rser=1
SYMBOL res -192 32 R0
SYMATTR InstName R5
SYMATTR Value 1Meg
SYMBOL res -416 240 R180
WINDOW 0 36 76 Left 2
WINDOW 3 36 40 Left 2
SYMATTR InstName R7
SYMATTR Value 698
SYMBOL res -976 -464 R0
SYMATTR InstName R3
SYMATTR Value 15k
SYMBOL res -784 -464 R0
SYMATTR InstName R10
SYMATTR Value 15k
SYMBOL current -864 16 R0
SYMATTR InstName I1
SYMATTR Value 16.28m
SYMBOL res -656 48 R180
WINDOW 0 36 76 Left 2
WINDOW 3 36 40 Left 2
SYMATTR InstName R4
SYMATTR Value 1k
SYMBOL res -704 -304 R270
WINDOW 0 32 56 VTop 2
WINDOW 3 0 56 VBottom 2
SYMATTR InstName R15
SYMATTR Value 1k
SYMBOL diode -704 -112 R90
WINDOW 0 0 32 VBottom 2
WINDOW 3 32 32 VTop 2
SYMATTR InstName D4
SYMATTR Value 1N4148
SYMBOL diode -1088 -80 R270
WINDOW 0 32 32 VTop 2
WINDOW 3 0 32 VBottom 2
SYMATTR InstName D5
SYMATTR Value 1N4148
SYMBOL res -1104 48 R180
WINDOW 0 36 76 Left 2
WINDOW 3 36 40 Left 2
SYMATTR InstName R16
SYMATTR Value 1k
SYMBOL polcap -368 -176 R270
WINDOW 0 32 32 VTop 2
WINDOW 3 0 32 VBottom 2
SYMATTR InstName C1
SYMATTR Value 100µ
SYMATTR Description Capacitor
SYMATTR Type cap
SYMATTR SpiceLine Rser=180m Lser=0 mfg="Nichicon" pn="UPR2A101MRH" type="Al electrolytic"
SYMBOL res -416 -528 R0
SYMATTR InstName R1
SYMATTR Value 1k
SYMBOL Misc/triode -960 -224 R0
SYMATTR InstName U6
SYMATTR Value ECC88
SYMBOL Misc/triode -768 -224 R0
SYMATTR InstName U7
SYMATTR Value ECC88
TEXT -1976 -328 Left 2 !.inc Analyzer_Controls.txt
TEXT -1976 -288 Left 2 !.tran 0 {AnalysisTime} {SettlingTime} {MaxTimestep}
TEXT -1968 -240 Left 2 !*.ac oct 12 20 20k
TEXT -1968 -192 Left 2 !*.tran 0 1 0.1 .01
TEXT -1976 -384 Left 2 !.model 1N4007 D(Vrev=700 Vfwd=1.1)
TEXT -1968 -144 Left 2 !*.op
TEXT -1968 -456 Left 2 !.inc ECC88.inc
