Version 4
SHEET 1 2240 1136
WIRE -1232 -496 -1232 -560
WIRE -1232 -496 -1328 -496
WIRE -1136 -496 -1232 -496
WIRE -1328 -448 -1328 -496
WIRE -1136 -448 -1136 -496
WIRE -400 -416 -400 -560
WIRE -176 -416 -400 -416
WIRE -400 -368 -400 -416
WIRE -1136 -320 -1136 -368
WIRE -1088 -320 -1136 -320
WIRE -544 -320 -1008 -320
WIRE -448 -320 -544 -320
WIRE -176 -288 -176 -416
WIRE -1328 -272 -1328 -368
WIRE -1136 -272 -1136 -320
WIRE -1376 -224 -1488 -224
WIRE -1040 -224 -1184 -224
WIRE -544 -192 -544 -320
WIRE -512 -192 -544 -192
WIRE -432 -192 -432 -272
WIRE -432 -192 -448 -192
WIRE -400 -192 -432 -192
WIRE -368 -192 -400 -192
WIRE -400 -128 -400 -192
WIRE -1488 -96 -1488 -224
WIRE -1456 -96 -1488 -96
WIRE -1360 -96 -1360 -176
WIRE -1360 -96 -1392 -96
WIRE -1168 -96 -1168 -176
WIRE -1136 -96 -1168 -96
WIRE -1040 -96 -1040 -224
WIRE -1040 -96 -1072 -96
WIRE -320 -80 -448 -80
WIRE -288 -80 -320 -80
WIRE -176 -80 -176 -224
WIRE -176 -80 -208 -80
WIRE -1488 -48 -1488 -96
WIRE -1040 -48 -1040 -96
WIRE -1360 -16 -1360 -96
WIRE -1232 -16 -1360 -16
WIRE -1168 -16 -1168 -96
WIRE -1168 -16 -1232 -16
WIRE -1232 16 -1232 -16
WIRE -432 48 -432 -32
WIRE -416 48 -432 48
WIRE -320 48 -320 -80
WIRE -320 48 -352 48
WIRE -176 48 -176 -80
WIRE -2384 64 -2384 32
WIRE -2320 64 -2384 64
WIRE -2256 64 -2256 32
WIRE -2256 64 -2320 64
WIRE -2320 80 -2320 64
WIRE -1488 80 -1488 32
WIRE -1040 80 -1040 32
WIRE -1232 144 -1232 96
WIRE -432 144 -432 48
WIRE -1488 192 -1488 144
WIRE -1040 192 -1040 144
WIRE -432 288 -432 224
WIRE -176 288 -176 128
WIRE -176 288 -432 288
WIRE -2320 320 -2320 288
WIRE -2112 320 -2112 288
WIRE -1920 320 -1920 288
WIRE -1728 320 -1728 288
WIRE -1536 320 -1536 288
WIRE -432 336 -432 288
WIRE -2320 432 -2320 400
WIRE -2288 432 -2320 432
WIRE -2112 432 -2112 400
WIRE -2080 432 -2112 432
WIRE -1920 432 -1920 400
WIRE -1888 432 -1920 432
WIRE -1728 432 -1728 400
WIRE -1696 432 -1728 432
WIRE -1536 432 -1536 400
WIRE -1504 432 -1536 432
WIRE -2320 464 -2320 432
WIRE -2112 464 -2112 432
WIRE -1920 464 -1920 432
WIRE -1728 464 -1728 432
WIRE -1536 464 -1536 432
WIRE -2320 576 -2320 544
WIRE -2112 576 -2112 544
WIRE -1920 576 -1920 544
WIRE -1728 576 -1728 544
WIRE -1536 576 -1536 544
WIRE -816 784 -1040 784
WIRE -704 784 -736 784
WIRE 256 784 160 784
WIRE 256 880 160 880
FLAG -368 -192 out_e
IOPIN -368 -192 Out
FLAG 256 784 out_e
IOPIN 256 784 In
FLAG 256 880 Notch
IOPIN 256 880 Out
FLAG -1488 192 +
FLAG -1040 192 -
FLAG -2320 288 +150VDC
IOPIN -2320 288 Out
FLAG -2320 80 0
FLAG -2384 -48 +
FLAG -2256 -48 -
FLAG -1232 -560 +50VDC
IOPIN -1232 -560 Out
FLAG -400 -560 +120VDC
IOPIN -400 -560 Out
FLAG -2288 432 0
FLAG -2320 576 -150VDC
IOPIN -2320 576 Out
FLAG -432 336 -120VDC
IOPIN -432 336 Out
FLAG -2112 288 +240VDC
IOPIN -2112 288 Out
FLAG -2080 432 0
FLAG -2112 576 -240VDC
IOPIN -2112 576 Out
FLAG -1920 288 +120VDC
IOPIN -1920 288 Out
FLAG -1888 432 0
FLAG -1920 576 -120VDC
IOPIN -1920 576 Out
FLAG -1728 288 +50VDC
IOPIN -1728 288 Out
FLAG -1696 432 0
FLAG -1728 576 -50VDC
IOPIN -1728 576 Out
FLAG -1232 144 -100VDC
IOPIN -1232 144 Out
FLAG -1536 288 +100VDC
IOPIN -1536 288 Out
FLAG -1504 432 0
FLAG -1536 576 -100VDC
IOPIN -1536 576 Out
SYMBOL res -832 800 R270
WINDOW 0 32 56 VTop 2
WINDOW 3 0 56 VBottom 2
SYMATTR InstName RG
SYMATTR Value 1
SYMBOL THD_Analyzer -288 752 R0
SYMATTR InstName U3
SYMBOL ValVol/Tubes/6H30 -400 -320 R0
SYMATTR InstName U5
SYMBOL voltage -2320 304 R0
WINDOW 39 45 93 Left 2
WINDOW 3 46 72 Left 2
SYMATTR SpiceLine Rser=0
SYMATTR Value 150
SYMATTR InstName V4
SYMBOL voltage -2384 -64 R0
WINDOW 3 -301 56 Left 2
SYMATTR Value SINE(0 2.5 1000 0 0 0)
SYMATTR InstName V2
SYMATTR Value2 AC 2.5 0
SYMBOL voltage -2256 -64 R0
WINDOW 3 45 57 Left 2
SYMATTR Value SINE(0 2.5 1000 0 0 180)
SYMATTR InstName V3
SYMATTR Value2 AC 2.5 180
SYMBOL diode -512 -176 R270
WINDOW 0 32 32 VTop 2
WINDOW 3 0 32 VBottom 2
SYMATTR InstName D1
SYMATTR Value 1N4148
SYMBOL ValVol/Tubes/6H30 -400 -80 R0
SYMATTR InstName U4
SYMBOL res -304 -64 R270
WINDOW 0 32 56 VTop 2
WINDOW 3 0 56 VBottom 2
SYMATTR InstName R2
SYMATTR Value 1k
SYMBOL zener -352 32 R90
WINDOW 0 0 32 VBottom 2
WINDOW 3 32 32 VTop 2
SYMATTR InstName D2
SYMATTR Value 1N750
SYMATTR Description Diode
SYMATTR Type diode
SYMBOL cap -192 -288 R0
SYMATTR InstName C2
SYMATTR Value 100n
SYMATTR SpiceLine Rser=1
SYMBOL res -192 32 R0
SYMATTR InstName R5
SYMATTR Value 1Meg
SYMBOL res -416 240 R180
WINDOW 0 36 76 Left 2
WINDOW 3 36 40 Left 2
SYMATTR InstName R7
SYMATTR Value 1500
SYMBOL res -1344 -464 R0
SYMATTR InstName R3
SYMATTR Value 10.5k
SYMBOL res -1152 -464 R0
SYMATTR InstName R10
SYMATTR Value 10.5K
SYMBOL current -1232 16 R0
SYMATTR InstName I1
SYMATTR Value 10m
SYMBOL res -1024 48 R180
WINDOW 0 36 76 Left 2
WINDOW 3 36 40 Left 2
SYMATTR InstName R4
SYMATTR Value 1k
SYMBOL AutoGenerated/5687wa -1328 -224 R0
SYMATTR InstName U1
SYMBOL AutoGenerated/5687wa -1136 -224 R0
SYMATTR InstName U2
SYMBOL res -1104 -304 R270
WINDOW 0 32 56 VTop 2
WINDOW 3 0 56 VBottom 2
SYMATTR InstName R15
SYMATTR Value 1k
SYMBOL diode -1072 -112 R90
WINDOW 0 0 32 VBottom 2
WINDOW 3 32 32 VTop 2
SYMATTR InstName D4
SYMATTR Value 1N4148
SYMBOL diode -1456 -80 R270
WINDOW 0 32 32 VTop 2
WINDOW 3 0 32 VBottom 2
SYMATTR InstName D5
SYMATTR Value 1N4148
SYMBOL res -1472 48 R180
WINDOW 0 36 76 Left 2
WINDOW 3 36 40 Left 2
SYMATTR InstName R16
SYMATTR Value 1k
SYMBOL voltage -2320 448 R0
WINDOW 39 24 118 Left 2
SYMATTR SpiceLine Rser=0
SYMATTR InstName V5
SYMATTR Value -150
SYMBOL voltage -2112 304 R0
WINDOW 39 45 93 Left 2
WINDOW 3 46 72 Left 2
SYMATTR SpiceLine Rser=0
SYMATTR Value 240
SYMATTR InstName V1
SYMBOL voltage -2112 448 R0
WINDOW 39 24 118 Left 2
SYMATTR SpiceLine Rser=0
SYMATTR InstName V6
SYMATTR Value -240
SYMBOL voltage -1920 304 R0
WINDOW 39 45 93 Left 2
WINDOW 3 46 72 Left 2
SYMATTR SpiceLine Rser=0
SYMATTR Value 120
SYMATTR InstName V7
SYMBOL voltage -1920 448 R0
WINDOW 39 24 118 Left 2
SYMATTR SpiceLine Rser=0
SYMATTR InstName V8
SYMATTR Value -120
SYMBOL voltage -1728 304 R0
WINDOW 39 45 93 Left 2
WINDOW 3 46 72 Left 2
SYMATTR SpiceLine Rser=0
SYMATTR Value 50
SYMATTR InstName V9
SYMBOL voltage -1728 448 R0
WINDOW 39 24 118 Left 2
SYMATTR SpiceLine Rser=0
SYMATTR InstName V10
SYMATTR Value -50
SYMBOL voltage -1536 304 R0
WINDOW 39 45 93 Left 2
WINDOW 3 46 72 Left 2
SYMATTR SpiceLine Rser=0
SYMATTR Value 100
SYMATTR InstName V11
SYMBOL voltage -1536 448 R0
WINDOW 39 24 118 Left 2
SYMATTR SpiceLine Rser=0
SYMATTR InstName V12
SYMATTR Value -100
SYMBOL polcap -1024 144 R180
WINDOW 0 24 57 Left 2
WINDOW 3 24 8 Left 2
SYMATTR InstName C1
SYMATTR Value 330µ
SYMATTR Description Capacitor
SYMATTR Type cap
SYMATTR SpiceLine Rser=55m Lser=0 mfg="Nichicon" pn="UPL1H331MPH" type="Al electrolytic"
SYMBOL polcap -1472 144 R180
WINDOW 0 24 57 Left 2
WINDOW 3 24 8 Left 2
SYMATTR InstName C3
SYMATTR Value 330µ
SYMATTR Description Capacitor
SYMATTR Type cap
SYMATTR SpiceLine Rser=55m Lser=0 mfg="Nichicon" pn="UPL1H331MPH" type="Al electrolytic"
TEXT -2472 -408 Left 2 !.inc Analyzer_Controls.txt
TEXT -2472 -368 Left 2 !.tran 0 {AnalysisTime} {SettlingTime} {MaxTimestep}
TEXT -2464 -320 Left 2 !*.ac oct 12 20 20k
TEXT -2464 -272 Left 2 !*.tran 0 1 0.1 .01
TEXT -2472 -464 Left 2 !.model 1N4007 D(Vrev=700 Vfwd=1.1)
TEXT -2464 -224 Left 2 !*.op
