Version 4
SHEET 1 1484 816
WIRE 272 96 256 96
WIRE 416 96 272 96
WIRE 448 96 416 96
WIRE 560 96 528 96
WIRE 592 96 560 96
WIRE 704 96 672 96
WIRE 768 96 704 96
WIRE 896 96 896 64
WIRE 896 96 768 96
WIRE 416 112 416 96
WIRE 560 112 560 96
WIRE 704 112 704 96
WIRE 768 112 768 96
WIRE 896 112 896 96
WIRE 208 144 96 144
WIRE 336 144 320 144
WIRE 96 160 96 144
WIRE 208 160 208 144
WIRE 320 160 320 144
WIRE 272 208 256 208
WIRE 416 208 416 176
WIRE 416 208 272 208
WIRE 560 208 560 176
WIRE 560 208 416 208
WIRE 704 208 704 176
WIRE 704 208 560 208
WIRE 768 208 768 176
WIRE 768 208 704 208
WIRE 896 208 896 192
WIRE 960 208 896 208
WIRE 992 208 960 208
WIRE 1072 208 1056 208
WIRE 1088 208 1072 208
WIRE 1168 208 1168 176
WIRE 1168 208 1152 208
WIRE 896 224 896 208
WIRE 1168 224 1168 208
WIRE 960 240 960 208
WIRE 1072 240 1072 208
WIRE 96 256 96 240
WIRE 336 256 336 144
WIRE 336 256 96 256
WIRE 768 320 768 208
WIRE 896 320 896 304
WIRE 896 320 768 320
WIRE 1168 320 1168 304
WIRE 1168 320 896 320
WIRE 896 352 896 320
FLAG 896 64 +240V
IOPIN 896 64 Out
FLAG 960 240 +120V
IOPIN 960 240 Out
FLAG 1072 240 +125.2V
IOPIN 1072 240 Out
FLAG 896 352 0
FLAG 1168 176 6.3V
IOPIN 1168 176 Out
SYMBOL voltage 96 144 R0
WINDOW 39 24 118 Left 2
SYMATTR InstName V1
SYMATTR Value SINE(0 203 60)
SYMATTR SpiceLine Rser=58
SYMBOL diode45 320 96 R90
SYMATTR InstName D4
SYMATTR Value 1N4007
SYMBOL cap 400 112 R0
SYMATTR InstName C1
SYMATTR Value 47µ
SYMATTR SpiceLine Rser=1
SYMBOL cap 544 112 R0
SYMATTR InstName C2
SYMATTR Value 47µ
SYMATTR SpiceLine Rser=1
SYMBOL cap 688 112 R0
SYMATTR InstName C3
SYMATTR Value 330µ
SYMATTR SpiceLine Rser=757m
SYMBOL cap 752 112 R0
SYMATTR InstName C4
SYMATTR Value 330µ
SYMATTR SpiceLine Rser=757m
SYMBOL ind 432 112 R270
WINDOW 0 32 56 VTop 2
WINDOW 3 5 56 VBottom 2
SYMATTR InstName L1
SYMATTR Value 5
SYMBOL res 688 80 R90
WINDOW 0 0 56 VBottom 2
WINDOW 3 32 56 VTop 2
SYMATTR InstName R1
SYMATTR Value 62
SYMBOL res 912 208 R180
WINDOW 0 36 76 Left 2
WINDOW 3 36 40 Left 2
SYMATTR InstName R2
SYMATTR Value 62
SYMBOL res 912 320 R180
WINDOW 0 36 76 Left 2
WINDOW 3 36 40 Left 2
SYMATTR InstName R3
SYMATTR Value 62
SYMBOL voltage 1168 208 R0
WINDOW 39 24 118 Left 2
SYMATTR InstName V3
SYMATTR Value SINE(0 6.3 60)
SYMBOL cap 1088 224 R270
WINDOW 0 32 32 VTop 2
WINDOW 3 0 32 VBottom 2
SYMATTR InstName C5
SYMATTR Value 47µ
SYMATTR SpiceLine Rser=1
SYMBOL diode 992 224 R270
WINDOW 0 32 32 VTop 2
WINDOW 3 0 32 VBottom 2
SYMATTR InstName D5
SYMATTR Value 1N4007
SYMBOL diode45 256 160 R90
SYMATTR InstName D1
SYMATTR Value 1N4007
SYMBOL diode45 256 144 R180
SYMATTR InstName D2
SYMATTR Value 1N4007
SYMBOL diode45 320 208 R180
SYMATTR InstName D3
SYMATTR Value 1N4007
TEXT 368 -176 Left 2 !.model 1N4007 D(Vrev=700 Vfwd=1.1)
TEXT 8 -216 Left 2 ;.ac dec 10 20 20k
TEXT 16 -144 Left 2 !.tran 0 20 1 .1
