Version 4
SHEET 1 2240 1136
WIRE -832 -608 -832 -640
WIRE -832 -608 -1136 -608
WIRE -832 -576 -832 -608
WIRE -1136 -496 -1136 -608
WIRE -832 -432 -832 -496
WIRE -592 -432 -832 -432
WIRE -832 -368 -832 -432
WIRE -1248 -320 -1296 -320
WIRE -1136 -320 -1136 -416
WIRE -1136 -320 -1184 -320
WIRE -1088 -320 -1136 -320
WIRE -976 -320 -1008 -320
WIRE -880 -320 -976 -320
WIRE -592 -288 -592 -432
WIRE -976 -192 -976 -320
WIRE -944 -192 -976 -192
WIRE -864 -192 -864 -272
WIRE -864 -192 -880 -192
WIRE -832 -192 -864 -192
WIRE -800 -192 -832 -192
WIRE -704 -192 -736 -192
WIRE -1136 -128 -1136 -320
WIRE -832 -128 -832 -192
WIRE -736 -80 -880 -80
WIRE -704 -80 -736 -80
WIRE -592 -80 -592 -224
WIRE -592 -80 -624 -80
WIRE -864 48 -864 -32
WIRE -816 48 -864 48
WIRE -736 48 -736 -80
WIRE -736 48 -752 48
WIRE -592 48 -592 -80
WIRE -2384 64 -2384 32
WIRE -2320 64 -2384 64
WIRE -2256 64 -2256 32
WIRE -2256 64 -2320 64
WIRE -2320 80 -2320 64
WIRE -864 144 -864 48
WIRE -1136 288 -1136 -48
WIRE -864 288 -864 224
WIRE -864 288 -1136 288
WIRE -592 288 -592 128
WIRE -592 288 -864 288
WIRE -864 336 -864 288
WIRE -2544 352 -2688 352
WIRE -2512 352 -2544 352
WIRE -2400 352 -2432 352
WIRE -2368 352 -2400 352
WIRE -2256 352 -2288 352
WIRE -2192 352 -2256 352
WIRE -2128 352 -2192 352
WIRE -2064 352 -2128 352
WIRE -2000 352 -2064 352
WIRE -1936 352 -2000 352
WIRE -1872 352 -1936 352
WIRE -1808 352 -1872 352
WIRE -2688 368 -2688 352
WIRE -2544 368 -2544 352
WIRE -2400 368 -2400 352
WIRE -2256 368 -2256 352
WIRE -2192 368 -2192 352
WIRE -2128 368 -2128 352
WIRE -2064 368 -2064 352
WIRE -2000 368 -2000 352
WIRE -1936 368 -1936 352
WIRE -1872 368 -1872 352
WIRE -2688 464 -2688 448
WIRE -2544 464 -2544 432
WIRE -2544 464 -2688 464
WIRE -2400 464 -2400 432
WIRE -2400 464 -2544 464
WIRE -2256 464 -2256 432
WIRE -2256 464 -2400 464
WIRE -2192 464 -2192 432
WIRE -2192 464 -2256 464
WIRE -2128 464 -2128 432
WIRE -2128 464 -2192 464
WIRE -2064 464 -2064 432
WIRE -2064 464 -2128 464
WIRE -2000 464 -2000 432
WIRE -2000 464 -2064 464
WIRE -1936 464 -1936 432
WIRE -1936 464 -2000 464
WIRE -1872 464 -1872 432
WIRE -1872 464 -1936 464
WIRE -2400 480 -2400 464
WIRE -1296 784 -1296 -320
WIRE -816 784 -1296 784
WIRE -704 784 -736 784
WIRE 256 784 160 784
WIRE -2096 816 -2096 784
WIRE -2432 880 -2432 848
WIRE -2400 880 -2432 880
WIRE -2288 880 -2320 880
WIRE 256 880 160 880
WIRE -2432 912 -2432 880
WIRE -2288 944 -2288 880
WIRE -2176 944 -2288 944
WIRE -2096 944 -2096 896
WIRE -2096 944 -2176 944
WIRE -2176 976 -2176 944
WIRE -2096 976 -2096 944
WIRE -2432 1024 -2432 992
WIRE -2400 1024 -2432 1024
WIRE -2288 1024 -2288 944
WIRE -2288 1024 -2320 1024
WIRE -2176 1088 -2176 1056
WIRE -2096 1088 -2096 1040
WIRE -2096 1088 -2176 1088
WIRE -2176 1120 -2176 1088
FLAG -704 -192 out_e
IOPIN -704 -192 Out
FLAG 256 784 out_e
IOPIN 256 784 In
FLAG 256 880 Notch
IOPIN 256 880 Out
FLAG -864 336 0
FLAG -1600 -336 +
FLAG -1600 -256 -
FLAG -1808 352 +240VDC
IOPIN -1808 352 Out
FLAG -2432 848 +126.3VAC
IOPIN -2432 848 Out
FLAG -2176 1120 0
FLAG -2400 480 0
FLAG -2096 784 +240VDC
IOPIN -2096 784 Out
FLAG -2320 80 0
FLAG -2384 -48 +
FLAG -2256 -48 -
FLAG -832 -640 +240VDC
IOPIN -832 -640 Out
SYMBOL res -832 800 R270
WINDOW 0 32 56 VTop 2
WINDOW 3 0 56 VBottom 2
SYMATTR InstName RG
SYMATTR Value 1
SYMBOL THD_Analyzer -288 752 R0
SYMATTR InstName U3
SYMBOL res -1104 -304 R270
WINDOW 0 32 56 VTop 2
WINDOW 3 0 56 VBottom 2
SYMATTR InstName R1
SYMATTR Value 1k
SYMBOL ValVol/Tubes/6H30 -832 -320 R0
SYMATTR InstName U5
SYMBOL cap -2560 368 R0
SYMATTR InstName C14
SYMATTR Value 68µ
SYMATTR SpiceLine Rser=1
SYMBOL cap -2416 368 R0
SYMATTR InstName C15
SYMATTR Value 68µ
SYMATTR SpiceLine Rser=1
SYMBOL cap -2272 368 R0
SYMATTR InstName C16
SYMATTR Value 68µ
SYMATTR SpiceLine Rser=1
SYMBOL ind -2528 368 R270
WINDOW 0 32 56 VTop 2
WINDOW 3 5 56 VBottom 2
SYMATTR InstName L2
SYMATTR Value 5
SYMBOL res -2272 336 R90
WINDOW 0 0 56 VBottom 2
WINDOW 3 32 56 VTop 2
SYMATTR InstName R8
SYMATTR Value 330
SYMBOL res -2080 912 R180
WINDOW 0 36 76 Left 2
WINDOW 3 36 40 Left 2
SYMATTR InstName R9
SYMATTR Value 300k
SYMBOL voltage -2432 896 R0
WINDOW 39 -148 87 Left 2
WINDOW 0 -52 16 Left 2
WINDOW 3 -205 53 Left 2
SYMATTR SpiceLine Rser=58
SYMATTR InstName V1
SYMATTR Value SINE(0 6.3 60)
SYMBOL cap -2112 976 R0
SYMATTR InstName C18
SYMATTR Value 22µ
SYMATTR SpiceLine Rser=1
SYMBOL voltage -2688 352 R0
WINDOW 39 24 118 Left 2
SYMATTR SpiceLine Rser=58
SYMATTR InstName V4
SYMATTR Value 289
SYMBOL res -2160 1072 R180
WINDOW 0 36 76 Left 2
WINDOW 3 36 40 Left 2
SYMATTR InstName R11
SYMATTR Value 100k
SYMBOL res -2416 896 R270
WINDOW 0 32 56 VTop 2
WINDOW 3 0 56 VBottom 2
SYMATTR InstName R12
SYMATTR Value 220
SYMBOL res -2416 1040 R270
WINDOW 0 32 56 VTop 2
WINDOW 3 0 56 VBottom 2
SYMATTR InstName R13
SYMATTR Value 220
SYMBOL voltage -2384 -64 R0
WINDOW 3 -301 56 Left 2
SYMATTR Value SINE(0 2.5 1000 0 0 0)
SYMATTR InstName V2
SYMATTR Value2 AC 2.5 0
SYMBOL voltage -2256 -64 R0
WINDOW 3 45 57 Left 2
SYMATTR Value SINE(0 2.5 1000 0 0 180)
SYMATTR InstName V3
SYMATTR Value2 AC 2.5 180
SYMBOL cap -2208 368 R0
SYMATTR InstName C7
SYMATTR Value 68µ
SYMATTR SpiceLine Rser=1
SYMBOL cap -2144 368 R0
SYMATTR InstName C8
SYMATTR Value 68µ
SYMATTR SpiceLine Rser=1
SYMBOL cap -2080 368 R0
SYMATTR InstName C9
SYMATTR Value 68µ
SYMATTR SpiceLine Rser=1
SYMBOL cap -2016 368 R0
SYMATTR InstName C10
SYMATTR Value 68µ
SYMATTR SpiceLine Rser=1
SYMBOL cap -1952 368 R0
SYMATTR InstName C11
SYMATTR Value 68µ
SYMATTR SpiceLine Rser=1
SYMBOL cap -1888 368 R0
SYMATTR InstName C17
SYMATTR Value 68µ
SYMATTR SpiceLine Rser=1
SYMBOL diode -944 -176 R270
WINDOW 0 32 32 VTop 2
WINDOW 3 0 32 VBottom 2
SYMATTR InstName D1
SYMATTR Value 1N4148
SYMBOL ValVol/Tubes/6H30 -832 -80 R0
SYMATTR InstName U4
SYMBOL res -720 -64 R270
WINDOW 0 32 56 VTop 2
WINDOW 3 0 56 VBottom 2
SYMATTR InstName R2
SYMATTR Value 1k
SYMBOL diode -752 32 R90
WINDOW 0 0 32 VBottom 2
WINDOW 3 32 32 VTop 2
SYMATTR InstName D2
SYMATTR Value 1N4148
SYMBOL cap -608 -288 R0
SYMATTR InstName C2
SYMATTR Value 100n
SYMATTR SpiceLine Rser=1
SYMBOL res -608 32 R0
SYMATTR InstName R5
SYMATTR Value 1Meg
SYMBOL res -1152 -144 R0
SYMATTR InstName R6
SYMATTR Value 10Meg
SYMBOL res -848 240 R180
WINDOW 0 36 76 Left 2
WINDOW 3 36 40 Left 2
SYMATTR InstName R7
SYMATTR Value 77
SYMBOL res -848 -592 R0
SYMATTR InstName R3
SYMATTR Value 220
SYMBOL res -1152 -512 R0
SYMATTR InstName R4
SYMATTR Value 10Meg
SYMBOL cap -1184 -336 R90
WINDOW 0 0 32 VBottom 2
WINDOW 3 32 32 VTop 2
SYMATTR InstName C1
SYMATTR Value 22n
SYMATTR SpiceLine Rser=1
SYMBOL polcap -800 -176 R270
WINDOW 0 32 32 VTop 2
WINDOW 3 0 32 VBottom 2
SYMATTR InstName C3
SYMATTR Value 470µ
SYMATTR SpiceLine Rser=7m Lser=0 mfg="Rubycon" pn="2SW470M" type="Al electrolytic"
SYMATTR Description Capacitor
SYMATTR Type cap
TEXT -2472 -408 Left 2 !.inc Analyzer_Controls.txt
TEXT -2472 -368 Left 2 !.tran 0 {AnalysisTime} {SettlingTime} {MaxTimestep}
TEXT -2464 -320 Left 2 !*.ac oct 12 20 20k
TEXT -2464 -272 Left 2 !*.tran 0 1 0.1 .01
TEXT -2472 -464 Left 2 !.model 1N4007 D(Vrev=700 Vfwd=1.1)
TEXT -2464 -224 Left 2 !*.op
